===========================================================
=========== Main INFO =====================================
&MAIN PROJECT_NAME='example_widefire', NUMBER_OF_CASES=10, SEEDS=1/
&PHRC HRC_ID='LINEFIRE'/
===========================================================

&HEAD CHID='wind_test2', TITLE='Simple hill case with devices to visualize velocity profiles' /
&WIND SPEED=3.0, DIRECTION=270.0 /
&TIME T_END=60 / 

- 2 Computational grids
&MESH IJK=50,25,25, XB=0,50,-25, 0,0,25 /
&MESH IJK=50,25,25, XB=0,50,  0,25,0,25 /

&REAC ID='WOOD'
      FUEL='WOOD'
      SOOT_YIELD = 0.02
      O          = 2.5
      C          = 3.4
      H          = 6.2
      HEAT_OF_COMBUSTION = 17700 /

&SPEC ID='WATER VAPOR' /

- Australian grass based on experimental case F19 (Mell et al., 2007 IJWF)
&SURF ID = 'GRASS'
      MATL_ID(1,1) = 'Dry Grass'
      MATL_ID(2,1) = 'Soil'
      MASS_PER_VOLUME(1) = 0.6144
      THICKNESS(1:2) = 0.51,0.1
      MOISTURE_FRACTION(1) = 0.06
      SURFACE_VOLUME_RATIO(1)  = 12240
      EMISSIVITY = 0.99
      RGB = 122,117,48 /

&MATL ID                 = 'AIR'
      DENSITY            = 1.2
      CONDUCTIVITY       = 0.026
      SPECIFIC_HEAT      = 1.01 /

&MATL ID                 = 'MOISTURE'
      DENSITY            = 997.
      CONDUCTIVITY       = 0.62
      SPECIFIC_HEAT      = 4.184
      A                  = 600000.
      E                  = 48200.
      N_T                = -0.5
      SPEC_ID            = 'WATER VAPOR'
      NU_SPEC            = 1.0
      HEAT_OF_REACTION   = 2259. /

&MATL ID                 = 'Dry Grass'
      DENSITY            = 512.
      CONDUCTIVITY       = 0.11
      SPECIFIC_HEAT      = 1.5
      A                  = 36300.
      E                  = 60300.
      MATL_ID            = 'Char'
      NU_MATL            = 0.2
      SPEC_ID            = 'WOOD'
      NU_SPEC            = 0.8
      HEAT_OF_REACTION   = 711. /

&MATL ID                 = 'Char'
      DENSITY            = 300.
      CONDUCTIVITY       = 0.052
      SPECIFIC_HEAT      = 1.        /
      N_S                = 0.
      NU_O2_CHAR         = 1.65
      BETA_CHAR          = 0.2
      A                  = 430.
      E                  = 74800.
      MATL_ID            = 'Ash'
      NU_MATL            = 0.0227273
      SPEC_ID            = 'PRODUCTS'
      NU_SPEC            = 0.9965
      HEAT_OF_REACTION   = -32370. /

&MATL ID            = 'Ash'
      DENSITY       = 67.
      CONDUCTIVITY  = 0.1
      SPECIFIC_HEAT = 2.0 /

&MATL ID='Soil'
      CONDUCTIVITY = 0.25
      SPECIFIC_HEAT = 2.
      DENSITY = 1300. /

===========================================================
======= HRR CURVE =====================================
&IFTD PRE_PARM_INFO_ID='FTD', INCIPIENT_TIME=10,15, FIRE_GROWTH_TIME=1,1, PEAK_TIME=10,20, DECAY_TIME=1,1/
&MRND GENERATOR_ID='FG1', PRE_PARM_INFO_ID='FTD_I', DISTRIBUTION_TYPE='UNIFORM'/
&MRND GENERATOR_ID='FG2', PRE_PARM_INFO_ID='FTD_G', DISTRIBUTION_TYPE='CONSTANT'/
&MRND GENERATOR_ID='FG3', PRE_PARM_INFO_ID='FTD_P', DISTRIBUTION_TYPE='UNIFORM'/
&MRND GENERATOR_ID='FG4', PRE_PARM_INFO_ID='FTD_D', DISTRIBUTION_TYPE='CONSTANT'/
# max hrr
&IMHR PRE_PARM_INFO_ID='MAX_HRR', INCIPIENT_MAX_HRR=0,0, PEAK_MAX_HRR=1000,1000 DECAY_MIN_HRR=0,0/
&MRND GENERATOR_ID='incipient', PRE_PARM_INFO_ID='MAX_HRR_I', DISTRIBUTION_TYPE='CONSTANT'/
&MRND GENERATOR_ID='peak', PRE_PARM_INFO_ID='MAX_HRR_P', DISTRIBUTION_TYPE='CONSTANT'/
&MRND GENERATOR_ID='decay', PRE_PARM_INFO_ID='MAX_HRR_D', DISTRIBUTION_TYPE='CONSTANT'/
# generate the curve
&GFTD ID='FTD', PRE_PARM_INFO_ID='FTD', GENERATOR_ID='FG1','FG2','FG3','FG4'/
&GMHR ID='MAX_HRR', PRE_PARM_INFO_ID='MAX_HRR', GENERATOR_ID='incipient','peak','decay'/
&GHRC ID='LINEFIRE', FIRE_TIME_DURATION_GENERATOR_ID='FTD', MAX_HRR_GENERATOR_ID='MAX_HRR', TIME_FREQUENCY=1, END_TIME=60, FIRE_PATTERN=0,1,0,1/
===========================================================
- Ignitor fire
&SURF ID='LINEFIRE', HRRPUA=1000, RAMP_Q='RAMPIGN', RGB=255,0,0 /
===========================================================

-- Boundary conditions
&VENT XB =  0.0, 0.0,-25.0, 25.0, 0.0,25.0, SURF_ID = 'OPEN' /
&VENT XB = 50.0,50.0,-25.0, 25.0, 0.0,25.0, SURF_ID = 'OPEN' /
&VENT XB =  0.0,50.0,-25.0,-25.0, 0.0,25.0, SURF_ID = 'OPEN' /
&VENT XB =  0.0,50.0, 25.0, 25.0, 0.0,25.0, SURF_ID = 'OPEN' /
&VENT XB =  0.0,50.0, 25.0, 25.0,25.0,25.0, SURF_ID = 'OPEN' /

&GEOM ID='terrain', SURF_ID='GRASS', IS_TERRAIN=T,
      VERTS=
        20.0,-25.0,0.0,
        20.0, 25.0,0.0,
        24.0,-25.0,4.0,
        24.0, 25.0,4.0,
        28.0,-25.0,4.0,
        28.0, 25.0,4.0,
        31.0,-25.0,0.0,
        31.0, 25.0,0.0,
         0.0,-25.0,0.0,
         0.0, 25.0,0.0,
        50.0,-25.0,0.0,
        50.0, 25.0,0.0,

      FACES= 
           1,4,2,1,
           1,3,4,1,
           3,6,4,1, 
           3,5,6,1,
           5,8,6,1,
           5,7,8,1,
           9,2,10,1,
           9,1,2,1,
           7,12,8,1,
           7,11,12,1
             /

===========================================================
======= VENT POSITION =====================================
&IVTP PRE_PARM_INFO_ID='VENT POSITION', PLANE='Z', MOVE_RANGE=0,1,-25,25,0,0, VENT_SIZE=1,20, MESH_SIZE=0.1,0.1,0.1/
&MRND GENERATOR_ID='OBS1', PRE_PARM_INFO_ID='VENT POSITION_X', DISTRIBUTION_TYPE='CONSTANT'/
&MRND GENERATOR_ID='OBS2', PRE_PARM_INFO_ID='VENT POSITION_Y', DISTRIBUTION_TYPE='UNIFORM', SHUFFLE_STATES=FALSE/
&MRND GENERATOR_ID='OBS3', PRE_PARM_INFO_ID='VENT POSITION_Z', DISTRIBUTION_TYPE='CONSTANT'/
&GVTP ID='VENT_FIRE',  PRE_PARM_INFO_ID='VENT POSITION', GENERATOR_ID='OBS1','OBS2','OBS3'/
===========================================================
&VENT ID='VENT_FIRE', XB=0.0,1.0,-10,10,0,0, SURF_ID='LINEFIRE', GEOM=T /
===========================================================

- Outputs
&DUMP DT_SLCF=0.1, DT_BNDF=0.1, DT_PL3D=20 /

&BNDF QUANTITY='WALL TEMPERATURE'/
&BNDF QUANTITY='WALL THICKNESS'/
&BNDF QUANTITY='BURNING RATE'/
&BNDF QUANTITY='RADIATIVE HEAT FLUX'/
&BNDF QUANTITY='CONVECTIVE HEAT FLUX'/

&SLCF QUANTITY='TEMPERATURE', PBX=0.0 /
&SLCF QUANTITY='TEMPERATURE', PBY=0.0 /
&SLCF QUANTITY='VELOCITY',    PBX=0.0 /
&SLCF QUANTITY='VELOCITY',    PBY=0.0 /

-- Device files (gas phase point measurements)

&DEVC ID='UVELA', XB=10,10,-15,-15,0,25, POINTS=26,TIME_HISTORY=.TRUE.,QUANTITY='U-VELOCITY' /
&DEVC ID='VVELA', XB=10,10,-15,-15,0,25, POINTS=26,TIME_HISTORY=.TRUE.,QUANTITY='V-VELOCITY' /
&DEVC ID='WVELA', XB=10,10,-15,-15,0,25, POINTS=26,TIME_HISTORY=.TRUE.,QUANTITY='W-VELOCITY' /
&DEVC ID='TEMPA', XB=10,10,-15,-15,0,25, POINTS=26,TIME_HISTORY=.TRUE.,QUANTITY='TEMPERATURE' /

&DEVC ID='UVELB', XB=40,40,-15,-15,0,25, POINTS=26,TIME_HISTORY=.TRUE.,QUANTITY='U-VELOCITY' /
&DEVC ID='VVELB', XB=40,40,-15,-15,0,25, POINTS=26,TIME_HISTORY=.TRUE.,QUANTITY='V-VELOCITY' /
&DEVC ID='WVELB', XB=40,40,-15,-15,0,25, POINTS=26,TIME_HISTORY=.TRUE.,QUANTITY='W-VELOCITY' /
&DEVC ID='TEMPB', XB=40,40,-15,-15,0,25, POINTS=26,TIME_HISTORY=.TRUE.,QUANTITY='TEMPERATURE' /

&DEVC ID='UVELC', XB=10,10,15,15,0,25, POINTS=26,TIME_HISTORY=.TRUE.,QUANTITY='U-VELOCITY' /
&DEVC ID='VVELC', XB=10,10,15,15,0,25, POINTS=26,TIME_HISTORY=.TRUE.,QUANTITY='V-VELOCITY' /
&DEVC ID='WVELC', XB=10,10,15,15,0,25, POINTS=26,TIME_HISTORY=.TRUE.,QUANTITY='W-VELOCITY' /
&DEVC ID='TEMPC', XB=10,10,15,15,0,25, POINTS=26,TIME_HISTORY=.TRUE.,QUANTITY='TEMPERATURE' /

&DEVC ID='UVELD', XB=40,40,15,15,0,25, POINTS=26,TIME_HISTORY=.TRUE.,QUANTITY='U-VELOCITY' /
&DEVC ID='VVELD', XB=40,40,15,15,0,25, POINTS=26,TIME_HISTORY=.TRUE.,QUANTITY='V-VELOCITY' /
&DEVC ID='WVELD', XB=40,40,15,15,0,25, POINTS=26,TIME_HISTORY=.TRUE.,QUANTITY='W-VELOCITY' /
&DEVC ID='TEMPD', XB=40,40,15,15,0,25, POINTS=26,TIME_HISTORY=.TRUE.,QUANTITY='TEMPERATURE' /

&DEVC ID='UVELE', XB=20,20,-10,10,10,10, POINTS=21,TIME_HISTORY=.TRUE.,QUANTITY='U-VELOCITY' /
&DEVC ID='VVELE', XB=20,20,-10,10,10,10, POINTS=21,TIME_HISTORY=.TRUE.,QUANTITY='V-VELOCITY' /
&DEVC ID='WVELE', XB=20,20,-10,10,10,10, POINTS=21,TIME_HISTORY=.TRUE.,QUANTITY='W-VELOCITY' /
&DEVC ID='TEMPE', XB=20,20,-10,10,10,10, POINTS=21,TIME_HISTORY=.TRUE.,QUANTITY='TEMPERATURE' /

- End of file
&TAIL /
